Version 4
SHEET 1 1660 1096
WIRE 208 -160 208 -224
WIRE 1440 -160 1440 -224
WIRE 144 -96 80 -96
WIRE 1568 -96 1504 -96
WIRE 384 -16 384 -80
WIRE 1264 -16 1264 -80
WIRE 208 48 208 -32
WIRE 320 48 208 48
WIRE 528 48 448 48
WIRE 1200 48 1120 48
WIRE 1440 48 1440 -32
WIRE 1440 48 1328 48
WIRE 592 176 592 112
WIRE 1056 176 1056 112
WIRE 592 464 592 304
WIRE 1056 464 1056 304
WIRE 592 656 592 592
WIRE 1056 656 1056 592
WIRE 320 720 208 720
WIRE 528 720 448 720
WIRE 1200 720 1120 720
WIRE 1440 720 1328 720
WIRE 208 800 208 720
WIRE 1440 800 1440 720
WIRE 384 848 384 784
WIRE 1264 848 1264 784
WIRE 144 864 80 864
WIRE 1568 864 1504 864
WIRE 208 992 208 928
WIRE 1440 992 1440 928
FLAG 208 -224 POS
FLAG 592 -16 POS
FLAG 528 240 RS
FLAG 80 -96 Reset
FLAG 384 -80 Shutter
FLAG 208 992 POS
FLAG 592 784 POS
FLAG 528 528 RS2
FLAG 80 864 Reset
FLAG 384 848 Shutter
FLAG 1440 -224 POS
FLAG 1056 -16 POS
FLAG 1120 240 RS
FLAG 1568 -96 Reset
FLAG 1264 -80 Shutter
FLAG 1440 992 POS
FLAG 1056 784 POS
FLAG 1120 528 RS2
FLAG 1568 864 Reset
FLAG 1264 848 Shutter
SYMBOL cktsym\\nmos3 592 48 R0
SYMATTR InstName U1
SYMATTR SpiceLine W=.9u L=.6u ad=10.8p as=10.8p pd=7.2u ps=7.2u
SYMBOL cktsym\\nmos3 592 240 R0
SYMATTR InstName U4
SYMATTR SpiceLine W=.9u L=.6u ad=10.8p as=10.8p pd=7.2u ps=7.2u
SYMBOL cktsym\\nmos3 208 -96 R0
SYMATTR InstName U2
SYMATTR SpiceLine W=0.9u L=0.6u ad=10.8p as=508p pd=7.2u ps=350u
SYMBOL cktsym\\nmos3 384 48 R90
SYMATTR InstName U3
SYMATTR SpiceLine W=0.9u L=0.6u ad=10.8p as=10.8p pd=7.2u ps=7.2u
SYMBOL cktsym\\nmos3 592 720 M180
SYMATTR InstName U5
SYMATTR SpiceLine W=.9u L=.6u ad=10.8p as=10.8p pd=7.2u ps=7.2u
SYMBOL cktsym\\nmos3 592 528 M180
SYMATTR InstName U6
SYMATTR SpiceLine W=.9u L=.6u ad=10.8p as=10.8p pd=7.2u ps=7.2u
SYMBOL cktsym\\nmos3 208 864 M180
SYMATTR InstName U7
SYMATTR SpiceLine W=0.9u L=0.6u ad=10.8p as=508p pd=7.2u ps=350u
SYMBOL cktsym\\nmos3 384 720 M270
SYMATTR InstName U8
SYMATTR SpiceLine W=0.9u L=0.6u ad=10.8p as=10.8p pd=7.2u ps=7.2u
SYMBOL cktsym\\nmos3 1056 48 M0
SYMATTR InstName U9
SYMATTR SpiceLine W=.9u L=.6u ad=10.8p as=10.8p pd=7.2u ps=7.2u
SYMBOL cktsym\\nmos3 1056 240 M0
SYMATTR InstName U10
SYMATTR SpiceLine W=.9u L=.6u ad=10.8p as=10.8p pd=7.2u ps=7.2u
SYMBOL cktsym\\nmos3 1440 -96 M0
SYMATTR InstName U11
SYMATTR SpiceLine W=0.9u L=0.6u ad=10.8p as=508p pd=7.2u ps=350u
SYMBOL cktsym\\nmos3 1264 48 M90
SYMATTR InstName U12
SYMATTR SpiceLine W=0.9u L=0.6u ad=10.8p as=10.8p pd=7.2u ps=7.2u
SYMBOL cktsym\\nmos3 1056 720 R180
SYMATTR InstName U13
SYMATTR SpiceLine W=.9u L=.6u ad=10.8p as=10.8p pd=7.2u ps=7.2u
SYMBOL cktsym\\nmos3 1056 528 R180
SYMATTR InstName U14
SYMATTR SpiceLine W=.9u L=.6u ad=10.8p as=10.8p pd=7.2u ps=7.2u
SYMBOL cktsym\\nmos3 1440 864 R180
SYMATTR InstName U15
SYMATTR SpiceLine W=0.9u L=0.6u ad=10.8p as=508p pd=7.2u ps=350u
SYMBOL cktsym\\nmos3 1264 720 R270
SYMATTR InstName U16
SYMATTR SpiceLine W=0.9u L=0.6u ad=10.8p as=10.8p pd=7.2u ps=7.2u
