Version 4
SHEET 1 2860 1556
WIRE 208 -160 208 -224
WIRE 2544 -160 2544 -224
WIRE 144 -96 80 -96
WIRE 2672 -96 2608 -96
WIRE 384 -16 384 -80
WIRE 2368 -16 2368 -80
WIRE 208 48 208 -32
WIRE 320 48 208 48
WIRE 528 48 448 48
WIRE 2304 48 2224 48
WIRE 2544 48 2544 -32
WIRE 2544 48 2432 48
WIRE 592 176 592 112
WIRE 2160 176 2160 112
WIRE 592 336 592 304
WIRE 688 336 592 336
WIRE 2160 336 2160 304
WIRE 2160 336 2064 336
WIRE 688 400 688 336
WIRE 688 400 592 400
WIRE 2064 400 2064 336
WIRE 2160 400 2064 400
WIRE 592 432 592 400
WIRE 2160 432 2160 400
WIRE 912 592 912 544
WIRE 1840 592 1840 544
WIRE 592 624 592 560
WIRE 2160 624 2160 560
WIRE 848 656 800 656
WIRE 1952 656 1904 656
WIRE 320 688 208 688
WIRE 528 688 448 688
WIRE 2304 688 2224 688
WIRE 2544 688 2432 688
WIRE 208 768 208 688
WIRE 912 768 912 720
WIRE 1024 768 912 768
WIRE 1840 768 1840 720
WIRE 1840 768 1728 768
WIRE 2544 768 2544 688
WIRE 384 816 384 752
WIRE 912 816 912 768
WIRE 1840 816 1840 768
WIRE 2368 816 2368 752
WIRE 144 832 80 832
WIRE 2672 832 2608 832
WIRE 1024 880 1024 768
WIRE 1024 880 976 880
WIRE 1072 880 1024 880
WIRE 1296 880 1200 880
WIRE 1552 880 1456 880
WIRE 1728 880 1728 768
WIRE 1728 880 1680 880
WIRE 1776 880 1728 880
WIRE 208 960 208 896
WIRE 2544 960 2544 896
WIRE 912 976 912 944
WIRE 1840 976 1840 944
WIRE 1136 992 1136 944
WIRE 1616 992 1616 944
WIRE 848 1040 784 1040
WIRE 1968 1040 1904 1040
WIRE 688 1104 688 400
WIRE 912 1104 688 1104
WIRE 2064 1104 2064 400
WIRE 2064 1104 1840 1104
WIRE 688 1184 688 1104
WIRE 688 1184 576 1184
WIRE 800 1184 688 1184
WIRE 2064 1184 2064 1104
WIRE 2064 1184 1952 1184
WIRE 2176 1184 2064 1184
FLAG 208 -224 Vdd
FLAG 80 -96 Reset
FLAG 384 -80 Shutter
FLAG 208 960 Vdd
FLAG 80 832 Reset
FLAG 384 816 Shutter
FLAG 800 656 Vbp
FLAG 1296 880 out
FLAG 592 -16 Vdd
FLAG 592 752 Vdd
FLAG 528 240 RS
FLAG 528 496 RS2
FLAG 912 544 Vdd
FLAG 800 1312 0
FLAG 576 1312 0
FLAG 1136 992 col1
FLAG 784 1040 Vdd
FLAG 736 1248 Vbn
FLAG 512 1248 Vbn
FLAG 2544 -224 Vdd
FLAG 2672 -96 Reset
FLAG 2368 -80 Shutter
FLAG 2544 960 Vdd
FLAG 2672 832 Reset
FLAG 2368 816 Shutter
FLAG 1952 656 Vbp
FLAG 1456 880 out
FLAG 2160 -16 Vdd
FLAG 2160 752 Vdd
FLAG 2224 240 RS
FLAG 2224 496 RS2
FLAG 1840 544 Vdd
FLAG 1952 1312 0
FLAG 2176 1312 0
FLAG 1616 992 col2
FLAG 1968 1040 Vdd
FLAG 2016 1248 Vbn
FLAG 2240 1248 Vbn
SYMBOL cktsym\\pmos3 912 656 R0
SYMATTR InstName U2
SYMATTR SpiceLine W=0.9u L=0.6u
SYMBOL cktsym\\nmos3 208 -96 R0
SYMATTR InstName U3
SYMATTR SpiceLine W=0.9u L=0.6u
SYMBOL cktsym\\nmos3 384 48 R90
SYMATTR InstName U4
SYMATTR SpiceLine W=0.9u L=0.6u
SYMBOL cktsym\\nmos3 592 48 R0
SYMATTR InstName U5
SYMATTR SpiceLine W=0.9u L=0.6u
SYMBOL cktsym\\nmos3 592 240 R0
SYMATTR InstName U6
SYMATTR SpiceLine W=0.9u L=0.6u
SYMBOL cktsym\\nmos3 592 496 R0
SYMATTR InstName U7
SYMATTR SpiceLine W=0.9u L=0.6u
SYMBOL cktsym\\nmos3 384 688 M270
SYMATTR InstName U8
SYMATTR SpiceLine W=0.9u L=0.6u
SYMBOL cktsym\\nmos3 208 832 R0
SYMATTR InstName U9
SYMATTR SpiceLine W=0.9u L=0.6u
SYMBOL cktsym\\nmos3 592 688 R0
SYMATTR InstName U10
SYMATTR SpiceLine W=0.9u L=0.6u
SYMBOL cktsym\\nmos3 1136 880 R270
SYMATTR InstName U11
SYMATTR SpiceLine W=0.9u L=0.6u
SYMBOL cktsym\\nmos3 912 880 M0
SYMATTR InstName U12
SYMATTR SpiceLine W=0.9u L=0.6u
SYMBOL cktsym\\nmos3 912 1040 R0
SYMATTR InstName U13
SYMATTR SpiceLine W=0.9u L=0.6u
SYMBOL cktsym\\nmos3 800 1248 R0
SYMATTR InstName U14
SYMATTR SpiceLine W=0.9u L=0.6u
SYMBOL cktsym\\nmos3 576 1248 R0
SYMATTR InstName U15
SYMATTR SpiceLine W=0.9u L=0.6u
SYMBOL cktsym\\pmos3 1840 656 M0
SYMATTR InstName U1
SYMATTR SpiceLine W=0.9u L=0.6u
SYMBOL cktsym\\nmos3 2544 -96 M0
SYMATTR InstName U16
SYMATTR SpiceLine W=0.9u L=0.6u
SYMBOL cktsym\\nmos3 2368 48 M90
SYMATTR InstName U17
SYMATTR SpiceLine W=0.9u L=0.6u
SYMBOL cktsym\\nmos3 2160 48 M0
SYMATTR InstName U18
SYMATTR SpiceLine W=0.9u L=0.6u
SYMBOL cktsym\\nmos3 2160 240 M0
SYMATTR InstName U19
SYMATTR SpiceLine W=0.9u L=0.6u
SYMBOL cktsym\\nmos3 2160 496 M0
SYMATTR InstName U20
SYMATTR SpiceLine W=0.9u L=0.6u
SYMBOL cktsym\\nmos3 2368 688 R270
SYMATTR InstName U21
SYMATTR SpiceLine W=0.9u L=0.6u
SYMBOL cktsym\\nmos3 2544 832 M0
SYMATTR InstName U22
SYMATTR SpiceLine W=0.9u L=0.6u
SYMBOL cktsym\\nmos3 2160 688 M0
SYMATTR InstName U23
SYMATTR SpiceLine W=0.9u L=0.6u
SYMBOL cktsym\\nmos3 1616 880 M270
SYMATTR InstName U24
SYMATTR SpiceLine W=0.9u L=0.6u
SYMBOL cktsym\\nmos3 1840 880 R0
SYMATTR InstName U25
SYMATTR SpiceLine W=0.9u L=0.6u
SYMBOL cktsym\\nmos3 1840 1040 M0
SYMATTR InstName U26
SYMATTR SpiceLine W=0.9u L=0.6u
SYMBOL cktsym\\nmos3 1952 1248 M0
SYMATTR InstName U27
SYMATTR SpiceLine W=0.9u L=0.6u
SYMBOL cktsym\\nmos3 2176 1248 M0
SYMATTR InstName U28
SYMATTR SpiceLine W=0.9u L=0.6u
