Version 4
SHEET 1 880 680
SYMBOL CRSL_D_FlipFlop 144 112 R0
SYMATTR InstName X1
SYMBOL CRSL_D_FlipFlop 384 112 R0
SYMATTR InstName X2
SYMBOL CRSL_D_FlipFlop -32 320 R90
SYMATTR InstName X3
SYMBOL CRSL_D_FlipFlop -32 544 R90
SYMATTR InstName X4
