* Z:\home\eric\Documents\MADVLSI\Project\columnamplifier.asc
XU1 0 N001 N001 nmos3 W=0.9u L=0.6u
XU3 N001 N001 P001 pmos3 W=0.9u L=0.6u
XU2 0 N001 N001 nmos3 W=0.9u L=0.6u
XU4 0 N001 N001 nmos3 W=0.9u L=0.6u
XU5 Vout N001 P002 pmos3 W=0.9u L=0.6u
XU6 N001 Vout Vout nmos3 W=0.9u L=0.6u
XU7 P002 vdd
XU8 P001 vdd
V1 P003 0 5
XU9 P003 vdd
I1 P004 N001 10µ
XU10 P004 vdd
C1 Vout 0 20p
.tran 1u
.include engr3426.sub
.backanno
.end
