Version 4
SHEET 1 880 680
WIRE 512 -400 464 -400
WIRE 544 -400 512 -400
WIRE 512 -320 512 -400
WIRE 608 -320 608 -336
WIRE 608 -320 512 -320
WIRE 608 -288 608 -320
WIRE 688 -288 608 -288
WIRE 688 -224 688 -288
WIRE 688 -224 672 -224
WIRE 784 -224 688 -224
WIRE 400 -80 400 -336
WIRE 512 -80 400 -80
WIRE 400 -64 400 -80
WIRE 512 0 512 -80
WIRE 512 0 464 0
WIRE 560 0 512 0
WIRE 608 0 560 0
WIRE 400 64 64 64
WIRE 64 96 64 64
WIRE 64 96 -48 96
WIRE 112 96 64 96
WIRE -48 144 -48 96
WIRE 112 144 112 96
WIRE 64 208 64 96
WIRE 64 208 16 208
WIRE 176 208 64 208
WIRE 784 208 784 -224
WIRE 784 208 176 208
FLAG 608 -160 0
FLAG 112 272 0
FLAG -48 272 0
FLAG 128 -176 0
FLAG 608 0 Vout
FLAG 560 64 0
SYMBOL cktsym\\nmos3 112 208 R180
SYMATTR InstName U1
SYMATTR SpiceLine W=0.9u L=0.6u
SYMBOL cktsym\\pmos3 608 -400 R0
SYMATTR InstName U3
SYMATTR SpiceLine W=0.9u L=0.6u
SYMBOL cktsym\\nmos3 -48 208 R180
SYMATTR InstName U2
SYMATTR SpiceLine W=0.9u L=0.6u
SYMBOL cktsym\\nmos3 608 -224 R180
SYMATTR InstName U4
SYMATTR SpiceLine W=0.9u L=0.6u
SYMBOL cktsym\\pmos3 400 -400 M0
SYMATTR InstName U5
SYMATTR SpiceLine W=0.9u L=0.6u
SYMBOL cktsym\\nmos3 400 0 R180
SYMATTR InstName U6
SYMATTR SpiceLine W=0.9u L=0.6u
SYMBOL cktsym\\vdd 400 -464 R0
SYMATTR InstName U7
SYMBOL cktsym\\vdd 608 -464 R0
SYMATTR InstName U8
SYMBOL cktsym\\vsource 128 -240 R0
WINDOW 123 0 0 Left 2
WINDOW 39 0 0 Left 2
SYMATTR Value 5
SYMATTR InstName V1
SYMATTR Value2 ""
SYMATTR SpiceLine ""
SYMBOL cktsym\\vdd 128 -304 R0
SYMATTR InstName U9
SYMBOL cktsym\\isource 64 0 R0
WINDOW 123 0 0 Left 2
WINDOW 39 0 0 Left 2
SYMATTR Value 10µ
SYMATTR InstName I1
SYMATTR Value2 ""
SYMATTR SpiceLine ""
SYMBOL cktsym\\vdd 64 -64 R0
SYMATTR InstName U10
SYMBOL cap 544 0 R0
SYMATTR InstName C1
SYMATTR Value 20p
TEXT -100 296 Left 2 !.tran 1u
TEXT -104 344 Left 2 !.include engr3426.sub
