Version 4
SHEET 1 976 728
WIRE 208 -160 208 -224
WIRE 144 -96 80 -96
WIRE 384 -16 384 -80
WIRE 208 48 208 -32
WIRE 320 48 208 48
WIRE 528 48 448 48
WIRE 208 160 208 48
WIRE 592 176 592 112
FLAG 208 -224 POS
FLAG 592 -16 POS
FLAG 528 240 RS
FLAG 80 -96 Reset
FLAG -688 -400 POS
FLAG -688 -272 0
FLAG -688 32 0
FLAG -688 304 0
FLAG -688 -96 Reset
FLAG -688 176 Shutter
FLAG -688 608 0
FLAG -688 480 RS
FLAG 208 288 0
FLAG 592 368 0
FLAG 384 -80 Shutter
SYMBOL cktsym\\nmos3 592 48 R0
SYMATTR InstName U1
SYMATTR SpiceLine W=.9u L=.6u ad=10.8p as=10.8p pd=7.2u ps=7.2u
SYMBOL cktsym\\nmos3 592 240 R0
SYMATTR InstName U4
SYMATTR SpiceLine W=.9u L=.6u ad=10.8p as=10.8p pd=7.2u ps=7.2u
SYMBOL cktsym\\vsource -688 -336 R0
SYMATTR Value 5
SYMATTR InstName V1
SYMBOL cktsym\\vsource -688 -32 R0
WINDOW 123 0 0 Left 2
WINDOW 39 0 0 Left 2
SYMATTR Value2 ""
SYMATTR SpiceLine ""
SYMATTR Value PULSE(0 5 .1p .1n .1n 10u 20u 10)
SYMATTR InstName V2
SYMBOL cktsym\\vsource -688 240 R0
WINDOW 123 0 0 Left 2
WINDOW 39 0 0 Left 2
SYMATTR Value2 ""
SYMATTR SpiceLine ""
SYMATTR Value PULSE(0 5 10u .1n .1n 5u 20u 10)
SYMATTR InstName V3
SYMBOL cktsym\\vsource -688 544 R0
WINDOW 123 0 0 Left 2
WINDOW 39 0 0 Left 2
SYMATTR Value2 ""
SYMATTR SpiceLine ""
SYMATTR Value PULSE(0 5 15.5u .1n .1n 3u 20u 10)
SYMATTR InstName V4
SYMBOL cktsym\\isource 208 224 R0
WINDOW 123 0 0 Left 2
WINDOW 39 0 0 Left 2
SYMATTR Value2 ""
SYMATTR SpiceLine ""
SYMATTR Value 20n
SYMATTR InstName I1
SYMBOL cap 576 304 R0
SYMATTR InstName C1
SYMATTR Value 20p
SYMATTR SpiceLine ""
SYMBOL cktsym\\nmos3 208 -96 R0
SYMATTR InstName U2
SYMATTR SpiceLine W=0.9u L=0.6u ad=10.8p as=508p pd=7.2u ps=350u
SYMBOL cktsym\\nmos3 384 48 R90
SYMATTR InstName U3
SYMATTR SpiceLine W=0.9u L=0.6u ad=10.8p as=10.8p pd=7.2u ps=7.2u
TEXT -688 688 Left 2 !.include engr3426.sub
TEXT -720 712 Left 2 !.tran 0 200u 0
