Version 4
SHEET 1 880 680
WIRE 368 144 368 112
WIRE 480 144 368 144
WIRE 368 192 368 144
WIRE 368 208 368 192
WIRE 480 256 480 144
WIRE 480 256 432 256
WIRE 576 256 480 256
WIRE 368 320 224 320
FLAG 224 448 0
FLAG 192 240 0
FLAG 576 320 0
SYMBOL cktsym\\vdd 192 112 R0
SYMATTR InstName U1
SYMBOL cktsym\\vsource 192 176 R0
WINDOW 123 0 0 Left 2
WINDOW 39 0 0 Left 2
SYMATTR Value 5
SYMATTR InstName V1
SYMATTR Value2 ""
SYMATTR SpiceLine ""
SYMBOL cktsym\\nmos3 368 256 M0
SYMATTR InstName U2
SYMBOL cktsym\\isource 224 384 R0
WINDOW 123 0 0 Left 2
WINDOW 39 0 0 Left 2
SYMATTR Value 10µ
SYMATTR InstName I1
SYMATTR Value2 ""
SYMATTR SpiceLine ""
SYMBOL cktsym\\isource 368 48 R0
WINDOW 123 0 0 Left 2
WINDOW 39 0 0 Left 2
SYMATTR Value 5µ
SYMATTR InstName I2
SYMATTR Value2 ""
SYMATTR SpiceLine ""
SYMBOL cktsym\\vdd 368 -16 R0
SYMATTR InstName U3
SYMBOL cap 560 256 R0
SYMATTR InstName C1
SYMATTR Value 10p
SYMATTR SpiceLine ""
TEXT 176 528 Left 2 !.include engr3426.sub
TEXT 158 548 Left 2 !.tran 2u
